.model blue D

*Typ BLUE SiC LED: Vf=3.4V Vr=5V If=40mA trr=3uS

+ IS=93.1p 
+ RS = 42M
+ N = 7.47
+ BV = 5
+ IBV = 30u

*+ VF = 3.4V
*+ VR = 5v
*+ IF =40 mA
*+ trr = 3us
 
+ CJO = 2.97P 
+ VJ = .75 
+ M = .333 
+ TT = 4.32U
